3
Coordinates from ORCA-job UO2 E -626.440787184598
  U       0.000000      0.000000      0.000000
  O       0.000000      0.000000      2.000000
  O       0.000000      0.000000     -2.000000
3
Coordinates from ORCA-job UO2 E -626.522744961813
  U       0.000000     -0.000000      0.000000
  O      -0.000000      0.000000      1.887745
  O      -0.000000      0.000000     -1.887745
3
Coordinates from ORCA-job UO2 E -626.583913800229
  U       0.000000     -0.000000     -0.000001
  O      -0.000000      0.000000      1.775489
  O      -0.000000      0.000000     -1.775489
3
Coordinates from ORCA-job UO2 E -626.597959539132
  U      -0.000000     -0.000000      0.000003
  O       0.000000      0.000000      1.627510
  O       0.000000      0.000000     -1.627512
3
Coordinates from ORCA-job UO2 E -626.604932642660
  U      -0.000000     -0.000000     -0.000005
  O       0.000000      0.000000      1.689670
  O       0.000000      0.000000     -1.689665
3
Coordinates from ORCA-job UO2 E -626.605290578034
  U      -0.000000     -0.000000      0.000009
  O       0.000000      0.000000      1.679328
  O       0.000000      0.000000     -1.679337
3
Coordinates from ORCA-job UO2 E -626.605299205695
  U      -0.000000     -0.000000     -0.000030
  O       0.000000      0.000000      1.677737
  O       0.000000      0.000000     -1.677706
3
Coordinates from ORCA-job UO2 E -626.605298577892
  U      -0.000000     -0.000000      0.000081
  O       0.000000      0.000000      1.677728
  O       0.000000      0.000000     -1.677809
